18
0 1 C6H8N4
N                    -0.819594903376    -0.583849440000    -1.474769021458
N                     0.309998677081    -0.659046240000    -3.371757048480
H                     1.438743110561     1.157493600000    -3.107120795500
H                     0.031018584539     1.249341120000    -0.781918766894
H                    -1.058141646843    -2.204340480000    -2.823643126451
H                     0.705832918473    -1.018379520000    -4.282140015849
C                     0.691585082207     0.478036800000    -2.726010334090
C                    -0.013082059607     0.515635200000    -1.564693961791
C                    -0.590172317691    -1.267066080000    -2.582986857560
N                    -3.191465559032    -1.623713760000     2.807370994391
N                    -2.061871978575    -1.548516960000     0.910382967369
H                    -0.933127545096    -3.365056800000     1.175019220349
H                    -2.340852071117    -3.456904320000     3.500221248955
H                    -3.430012302501    -0.003222720000     1.458496889398
H                    -1.666037737183    -1.189183680000     0.000000000000
C                    -1.680285573448    -2.685600000000     1.556129681759
C                    -2.384952715263    -2.723198400000     2.717446054058
C                    -2.962042973348    -0.940497120000     1.699153158289
