20
0 1 C8H8N4
N                    -0.704254210211     0.518766485150     0.225572565388
N                     2.092246742391     0.518766485150     0.225572565388
H                     1.887647470152     2.303077483752    -0.498648834509
H                    -0.499654932680     2.303077483752    -0.498648834509
H                    -0.499654932680    -1.265544513452     0.949793965284
H                     1.887647470152    -1.265544513452     0.949793965284
C                     1.387992537471     1.556299455450    -0.225572565388
C                     0.000000000000     1.556299455450    -0.225572565388
C                     0.000000000000    -0.518766485150     0.676717701455
C                     1.387992537471    -0.518766485150     0.676717701455
N                    -0.704254210211   -22.882033516642     3.958672565945
N                     2.092246742391   -22.882033516642     3.958672565945
H                     1.887647470152   -21.097722512748     3.234451166049
H                    -0.499654932680   -21.097722512748     3.234451166049
H                    -0.499654932680   -24.666344515244     4.682893965842
H                     1.887647470152   -24.666344515244     4.682893965842
C                     1.387992537471   -21.844500546342     3.507527429878
C                     0.000000000000   -21.844500546342     3.507527429878
C                     0.000000000000   -23.919566486942     4.409817702013
C                     1.387992537471   -23.919566486942     4.409817702013
