10
0 1 
N                    -5.366954207474    -2.406333515074    -1.640977434891
N                    -2.570453254872    -2.406333515074    -1.640977434891
H                    -5.162354929943    -4.190644513676    -2.365198834787
H                    -5.162354929943    -0.622022516472    -0.916756034994
H                    -2.775052532403    -4.190644513676    -2.365198834787
H                    -2.775052532403    -0.622022516472    -0.916756034994
C                    -4.662700002555    -3.443866485374    -2.092122565667
C                    -4.662700002555    -1.368800544774    -1.189832298823
C                    -3.274707465083    -3.443866485374    -2.092122565667
C                    -3.274707465083    -1.368800544774    -1.189832298823
