18
0 1 C6H8N4
N                    -2.271808677546    -1.623713758657     2.807370993357
N                    -1.142215097162    -1.548516962632     0.910382968634
H                    -0.013470666282    -3.365056800736     1.175019221085
H                    -1.421195190043    -3.456904321740     3.500221249467
H                    -2.510355424573    -0.003222720964     1.458496891624
H                    -0.746380854346    -1.189183681024     0.000000000000
C                    -0.760628691447    -2.685599998661     1.556129679526
C                    -1.465295834511    -2.723198399320     2.717446052536
C                    -2.042386093945    -0.940497120750     1.699153155975
N                     0.100061975888    -0.583849439946    -1.474769022059
N                     1.229655556271    -0.659046241263    -3.371757046782
H                     2.358399992443     1.157493602132    -3.107120794331
H                     0.950675463390     1.249341117845    -0.781918765949
H                    -0.138484765848    -2.204340477640    -2.823643129084
H                     1.625489799087    -1.018379517579    -4.282140015416
C                     1.611241961987     0.478036800058    -2.726010335890
C                     0.906574818922     0.515635200717    -1.564693962880
C                     0.329484564780    -1.267066077853    -2.582986859441
