18
0 1 C6H8N4
N                    -2.271808677546    -1.623713758657     2.807370993357
N                    -1.142215097162    -1.548516962632     0.910382968634
H                    -0.013470666282    -3.365056800736     1.175019221085
H                    -1.421195190043    -3.456904321740     3.500221249467
H                    -2.510355424573    -0.003222720964     1.458496891624
H                    -0.746380854346    -1.189183681024     0.000000000000
C                    -0.760628691447    -2.685599998661     1.556129679526
C                    -1.465295834511    -2.723198399320     2.717446052536
C                    -2.042386093945    -0.940497120750     1.699153155975
N                    -2.738396712776   -22.068649439821   -10.039049052891
N                    -1.608803132392   -22.143846241138   -11.936037077614
H                    -0.480058696220   -20.327306397742   -11.671400825163
H                    -1.887783225273   -20.235458882030    -9.346198796781
H                    -2.976943454511   -23.689140477515   -11.387923159916
H                    -1.212968889576   -22.503179517454   -12.846420046248
C                    -1.227216726677   -21.006763199817   -11.290290366722
C                    -1.931883869741   -20.969164799158   -10.128973993712
C                    -2.508974123883   -22.751866077728   -11.147266890273
